
########## Code        : 1044
########## DGhyd       : -73 
########## mol_name    : PH4+ 

@<TRIPOS>MOLECULE
1044
5     4     1     0     0    
SMALL
USER_CHARGES
@<TRIPOS>ATOM
1     P1       0.0000    0.0000    0.0000 P.3     1  LIG   1.0391  -0.0523 
2     H1       0.2240   -0.0900   -1.3910 H       1  LIG  -0.0096   0.2631 
3     H2       0.5630    1.1980    0.4910 H       1  LIG  -0.0098   0.2631 
4     H3       0.6020   -1.1020    0.6450 H       1  LIG  -0.0098   0.2631 
5     H4      -1.3890   -0.0070    0.2540 H       1  LIG  -0.0100   0.2631 
@<TRIPOS>BOND
1     2     1     1
2     3     1     1
3     4     1     1
4     5     1     1
@<TRIPOS>SUBSTRUCTURE
1   ****   1    
